data_image0
_chemical_formula_structural       O8N4H4C8H8C4H8C4H8C4H8C12H8C4H8C4H8C8
_chemical_formula_sum              "O8 N4 H60 C48"
_cell_length_a       12.3047
_cell_length_b       6.3689
_cell_length_c       13.238
_cell_angle_alpha    90
_cell_angle_beta     96.223
_cell_angle_gamma    90

_space_group_name_H-M_alt    "P 1"
_space_group_IT_number       1

loop_
  _space_group_symop_operation_xyz
  'x, y, z'

loop_
  _atom_site_type_symbol
  _atom_site_label
  _atom_site_symmetry_multiplicity
  _atom_site_fract_x
  _atom_site_fract_y
  _atom_site_fract_z
  _atom_site_occupancy
  O   O1        1.0  0.40613  0.06727  0.09111  1.0000
  O   O2        1.0  0.09387  0.56727  0.40889  1.0000
  O   O3        1.0  0.59387  0.93273  0.90889  1.0000
  O   O4        1.0  0.90613  0.43273  0.59111  1.0000
  O   O5        1.0  0.53580  0.68437  0.26514  1.0000
  O   O6        1.0  0.96420  0.18437  0.23486  1.0000
  O   O7        1.0  0.46420  0.31563  0.73486  1.0000
  O   O8        1.0  0.03580  0.81563  0.76514  1.0000
  N   N1        1.0  0.56547  0.22366  0.06011  1.0000
  N   N2        1.0  0.93453  0.72366  0.43989  1.0000
  N   N3        1.0  0.43453  0.77634  0.93989  1.0000
  N   N4        1.0  0.06547  0.27634  0.56011  1.0000
  H   H1        1.0  0.55249  0.36180  0.12379  1.0000
  H   H2        1.0  0.94751  0.86180  0.37621  1.0000
  H   H3        1.0  0.44751  0.63820  0.87621  1.0000
  H   H4        1.0  0.05249  0.13820  0.62379  1.0000
  C   C1        1.0  0.64413  0.37454  0.07543  1.0000
  C   C2        1.0  0.85587  0.87454  0.42457  1.0000
  C   C3        1.0  0.35587  0.62546  0.92457  1.0000
  C   C4        1.0  0.14413  0.12546  0.57543  1.0000
  C   C5        1.0  0.74071  0.34920  0.01363  1.0000
  C   C6        1.0  0.75929  0.84920  0.48637  1.0000
  C   C7        1.0  0.25929  0.65080  0.98637  1.0000
  C   C8        1.0  0.24071  0.15080  0.51363  1.0000
  H   H5        1.0  0.78939  0.21509  0.04506  1.0000
  H   H6        1.0  0.71061  0.71509  0.45494  1.0000
  H   H7        1.0  0.21061  0.78491  0.95494  1.0000
  H   H8        1.0  0.28939  0.28491  0.54506  1.0000
  H   H9        1.0  0.70978  0.30480  0.93601  1.0000
  H   H10       1.0  0.79022  0.80480  0.56399  1.0000
  H   H11       1.0  0.29022  0.69520  0.06399  1.0000
  H   H12       1.0  0.20978  0.19520  0.43601  1.0000
  C   C9        1.0  0.80838  0.54690  0.01794  1.0000
  C   C10       1.0  0.69162  0.04690  0.48206  1.0000
  C   C11       1.0  0.19162  0.45310  0.98206  1.0000
  C   C12       1.0  0.30838  0.95310  0.51794  1.0000
  H   H13       1.0  0.88693  0.51588  0.98827  1.0000
  H   H14       1.0  0.61307  0.01588  0.51173  1.0000
  H   H15       1.0  0.11307  0.48412  0.01173  1.0000
  H   H16       1.0  0.38693  0.98412  0.48827  1.0000
  H   H17       1.0  0.76651  0.66486  0.96732  1.0000
  H   H18       1.0  0.73349  0.16486  0.53268  1.0000
  H   H19       1.0  0.23349  0.33514  0.03268  1.0000
  H   H20       1.0  0.26651  0.83514  0.46732  1.0000
  C   C13       1.0  0.82742  0.63730  0.12319  1.0000
  C   C14       1.0  0.67258  0.13730  0.37681  1.0000
  C   C15       1.0  0.17258  0.36270  0.87681  1.0000
  C   C16       1.0  0.32742  0.86270  0.62319  1.0000
  H   H21       1.0  0.87996  0.77672  0.12338  1.0000
  H   H22       1.0  0.62004  0.27672  0.37662  1.0000
  H   H23       1.0  0.12004  0.22328  0.87662  1.0000
  H   H24       1.0  0.37996  0.72328  0.62338  1.0000
  H   H25       1.0  0.87294  0.52374  0.17406  1.0000
  H   H26       1.0  0.62706  0.02374  0.32594  1.0000
  H   H27       1.0  0.12706  0.47626  0.82594  1.0000
  H   H28       1.0  0.37294  0.97626  0.67406  1.0000
  C   C17       1.0  0.72184  0.69430  0.16463  1.0000
  C   C18       1.0  0.77816  0.19430  0.33537  1.0000
  C   C19       1.0  0.27816  0.30570  0.83537  1.0000
  C   C20       1.0  0.22184  0.80570  0.66463  1.0000
  H   H29       1.0  0.73612  0.72208  0.24698  1.0000
  H   H30       1.0  0.76388  0.22208  0.25302  1.0000
  H   H31       1.0  0.26388  0.27792  0.75302  1.0000
  H   H32       1.0  0.23612  0.77792  0.74698  1.0000
  H   H33       1.0  0.69121  0.84487  0.13196  1.0000
  H   H34       1.0  0.80879  0.34487  0.36804  1.0000
  H   H35       1.0  0.30879  0.15513  0.86804  1.0000
  H   H36       1.0  0.19121  0.65513  0.63196  1.0000
  C   C21       1.0  0.63510  0.53115  0.14347  1.0000
  C   C22       1.0  0.86490  0.03115  0.35653  1.0000
  C   C23       1.0  0.36490  0.46885  0.85653  1.0000
  C   C24       1.0  0.13510  0.96885  0.64347  1.0000
  C   C25       1.0  0.54054  0.52485  0.19723  1.0000
  C   C26       1.0  0.95946  0.02485  0.30277  1.0000
  C   C27       1.0  0.45946  0.47515  0.80277  1.0000
  C   C28       1.0  0.04054  0.97515  0.69723  1.0000
  C   C29       1.0  0.43131  0.71216  0.30268  1.0000
  C   C30       1.0  0.06869  0.21216  0.19732  1.0000
  C   C31       1.0  0.56869  0.28784  0.69732  1.0000
  C   C32       1.0  0.93131  0.78784  0.80268  1.0000
  H   H37       1.0  0.37617  0.78587  0.24149  1.0000
  H   H38       1.0  0.12383  0.28587  0.25851  1.0000
  H   H39       1.0  0.62383  0.21413  0.75851  1.0000
  H   H40       1.0  0.87617  0.71413  0.74149  1.0000
  H   H41       1.0  0.44526  0.82645  0.36509  1.0000
  H   H42       1.0  0.05474  0.32645  0.13491  1.0000
  H   H43       1.0  0.55474  0.17355  0.63491  1.0000
  H   H44       1.0  0.94526  0.67355  0.86509  1.0000
  C   C33       1.0  0.38603  0.50893  0.33674  1.0000
  C   C34       1.0  0.11397  0.00893  0.16326  1.0000
  C   C35       1.0  0.61397  0.49107  0.66326  1.0000
  C   C36       1.0  0.88603  0.99107  0.83674  1.0000
  H   H45       1.0  0.30947  0.53602  0.36995  1.0000
  H   H46       1.0  0.19053  0.03602  0.13005  1.0000
  H   H47       1.0  0.69053  0.46398  0.63005  1.0000
  H   H48       1.0  0.80947  0.96398  0.86995  1.0000
  H   H49       1.0  0.44321  0.44033  0.39728  1.0000
  H   H50       1.0  0.05679  0.94033  0.10272  1.0000
  H   H51       1.0  0.55679  0.55967  0.60272  1.0000
  H   H52       1.0  0.94321  0.05967  0.89728  1.0000
  C   C37       1.0  0.36874  0.36047  0.24766  1.0000
  C   C38       1.0  0.13126  0.86047  0.25234  1.0000
  C   C39       1.0  0.63126  0.63953  0.75234  1.0000
  C   C40       1.0  0.86874  0.13953  0.74766  1.0000
  H   H53       1.0  0.35881  0.19760  0.27220  1.0000
  H   H54       1.0  0.14119  0.69760  0.22780  1.0000
  H   H55       1.0  0.64119  0.80240  0.72780  1.0000
  H   H56       1.0  0.85881  0.30240  0.77220  1.0000
  H   H57       1.0  0.29223  0.39942  0.20038  1.0000
  H   H58       1.0  0.20777  0.89942  0.29962  1.0000
  H   H59       1.0  0.70777  0.60058  0.79962  1.0000
  H   H60       1.0  0.79223  0.10058  0.70038  1.0000
  C   C41       1.0  0.46330  0.37170  0.18443  1.0000
  C   C42       1.0  0.03670  0.87170  0.31557  1.0000
  C   C43       1.0  0.53670  0.62830  0.81557  1.0000
  C   C44       1.0  0.96330  0.12830  0.68443  1.0000
  C   C45       1.0  0.47422  0.21291  0.11065  1.0000
  C   C46       1.0  0.02578  0.71291  0.38935  1.0000
  C   C47       1.0  0.52578  0.78709  0.88935  1.0000
  C   C48       1.0  0.97422  0.28709  0.61065  1.0000
